cramjam-2.3.0.dist-info/METADATA,sha256=cn328pLOroxqRTuej0Zwjufjd4eDAmKlNCZLaOokJtQ,3128
cramjam-2.3.0.dist-info/WHEEL,sha256=MT3DwHY5NKmzjNPpPbf0eXsp-b7ApWmdqZ12k72Nobo,105
cramjam.cpython-36m-darwin.so,sha256=Ed30EA1bus4_lQTYbQe9ccp2EFTwcCiTpEDw_8KeCbI,2820224
cramjam-2.3.0.dist-info/RECORD,,
