startinpy-0.7.0.dist-info/METADATA,sha256=5qbbmjW9Ga2jjo8PFVNxu7F6qITzKm8ormxAb3t7RSw,2388
startinpy-0.7.0.dist-info/WHEEL,sha256=MT3DwHY5NKmzjNPpPbf0eXsp-b7ApWmdqZ12k72Nobo,105
startinpy/__init__.py,sha256=QcVL5Gdf7g2FvdRdQi9EwW2fWQzkdpy7nfc-NPvI-KU,25
startinpy/startinpy.cpython-36m-darwin.so,sha256=aL5XShz2fCAdl0B7rxBwFY8FCzUuQbl2pGCaQ8Wgs34,832224
startinpy-0.7.0.dist-info/RECORD,,
