startinpy-0.7.1.dist-info/METADATA,sha256=6RseY9XhWDCBb1RV6ZOvtHyVugYk6DWIH39KYymBlQw,2388
startinpy-0.7.1.dist-info/WHEEL,sha256=MT3DwHY5NKmzjNPpPbf0eXsp-b7ApWmdqZ12k72Nobo,105
startinpy/__init__.py,sha256=QcVL5Gdf7g2FvdRdQi9EwW2fWQzkdpy7nfc-NPvI-KU,25
startinpy/startinpy.cpython-36m-darwin.so,sha256=VO6dQgbBkdTt837hbeNPxOfXbz_hWKgZ0dsFCSGUSH8,832224
startinpy-0.7.1.dist-info/RECORD,,
